test/test_files/validation_tests/case14_resqlim.m
function mpc = case14_resqlim
%CASE14_RESQLIM

%% MATPOWER Case Format : Version 2
mpc.version = '2';

%%-----  Power Flow Data  -----%%
%% system MVA base
mpc.baseMVA = 100;

%% bus data
%    bus_i    type    Pd    Qd    Gs    Bs    area    Vm    Va    baseKV    zone    Vmax    Vmin
mpc.bus = [
    1    1    0    0    0    0    1    1.06771287    0    0    1    1.06    0.94;
    2    3    21.7    12.7    0    0    1    1.045    -4.80777641    0    1    1.06    0.94;
    3    2    94.2    19    0    0    1    1.01    -12.5434266    0    1    1.06    0.94;
    4    1    47.8    -3.9    0    0    1    1.01860224    -10.1478618    0    1    1.06    0.94;
    5    1    7.6    1.6    0    0    1    1.02103852    -8.62004177    0    1    1.06    0.94;
    6    2    11.2    7.5    0    0    1    1.07    -14.053041    0    1    1.06    0.94;
    7    1    0    0    0    0    1    1.06194478    -13.1935867    0    1    1.06    0.94;
    8    2    0    0    0    0    1    1.09    -13.1935867    0    1    1.06    0.94;
    9    1    29.5    16.6    0    19    1    1.05634578    -14.7727876    0    1    1.06    0.94;
    10    1    9    5.8    0    0    1    1.05132855    -14.9312456    0    1    1.06    0.94;
    11    1    3.5    1.8    0    0    1    1.05708311    -14.6238875    0    1    1.06    0.94;
    12    1    6.1    1.6    0    0    1    1.05521947    -14.9075209    0    1    1.06    0.94;
    13    1    13.5    5.8    0    0    1    1.05044334    -14.9887323    0    1    1.06    0.94;
    14    1    14.9    5    0    0    1    1.03579521    -15.8666847    0    1    1.06    0.94;
];

%% generator data
%    bus    Pg    Qg    Qmax    Qmin    Vg    mBase    status    Pmax    Pmin    Pc1    Pc2    Qc1min    Qc1max    Qc2min    Qc2max    ramp_agc    ramp_10    ramp_30    ramp_q    apf
mpc.gen = [
    1    232.393272    0    10    0    1.06    100    1    332.4    0    0    0    0    0    0    0    0    0    0    0    0;
    2    39.8569878    28.0892211    50    -40    1.045    100    1    140    0    0    0    0    0    0    0    0    0    0    0    0;
    3    0    24.5188443    40    0    1.01    100    1    100    0    0    0    0    0    0    0    0    0    0    0    0;
    6    0    11.8937181    24    -6    1.07    100    1    100    0    0    0    0    0    0    0    0    0    0    0    0;
    8    0    17.3603116    24    -6    1.09    100    1    100    0    0    0    0    0    0    0    0    0    0    0    0;
];

%% branch data
%    fbus    tbus    r    x    b    rateA    rateB    rateC    ratio    angle    status    angmin    angmax    Pf    Qf    Pt    Qt
mpc.branch = [
    1    2    0.01938    0.05917    0.0528    0    0    0    0    0    1    -360    360    156.8191    -6.7529    -152.6360    13.6317;
    1    5    0.05403    0.22304    0.0492    0    0    0    0    0    1    -360    360    75.5742    6.7529    -72.8240    -0.7689;
    2    3    0.04699    0.19797    0.0438    0    0    0    0    0    1    -360    360    73.1758    3.5663    -70.8564    1.5799;
    2    4    0.05811    0.17632    0.034    0    0    0    0    0    1    -360    360    56.1097    -2.0832    -54.4344    3.5463;
    2    5    0.05695    0.17388    0.0346    0    0    0    0    0    1    -360    360    41.5076    0.2744    -40.6066    -1.2165;
    3    4    0.06701    0.17103    0.0128    0    0    0    0    0    1    -360    360    -23.3436    3.9390    23.7155    -4.3069;
    4    5    0.01335    0.04211    0    0    0    0    0    0    1    -360    360    -61.2814    14.4127    61.7913    -12.8042;
    4    7    0    0.20912    0    0    0    0    0.978    0    1    -360    360    28.1019    -9.4276    -28.1019    11.1214;
    4    9    0    0.55618    0    0    0    0    0.969    0    1    -360    360    16.0984    -0.3245    -16.0984    1.6295;
    5    6    0    0.25202    0    0    0    0    0.932    0    1    -360    360    44.0394    13.1896    -44.0394    -8.7518;
    6    11    0.09498    0.1989    0    0    0    0    0    0    1    -360    360    7.3266    3.4783    -7.2720    -3.3641;
    6    12    0.12291    0.25581    0    0    0    0    0    0    1    -360    360    7.7802    2.4933    -7.7085    -2.3442;
    6    13    0.06615    0.13027    0    0    0    0    0    0    1    -360    360    17.7326    7.1739    -17.5211    -6.7575;
    7    8    0    0.17615    0    0    0    0    0    0    1    -360    360    0.0000    -16.9135    -0.0000    17.3603;
    7    9    0    0.11001    0    0    0    0    0    0    1    -360    360    28.1019    5.7921    -28.1019    -4.9890;
    9    10    0.03181    0.0845    0    0    0    0    0    0    1    -360    360    5.2533    4.2995    -5.2402    -4.2646;
    9    14    0.12711    0.27038    0    0    0    0    0    0    1    -360    360    9.4469    3.6615    -9.3300    -3.4128;
    10    11    0.08205    0.19207    0    0    0    0    0    0    1    -360    360    -3.7598    -1.5354    3.7720    1.5641;
    12    13    0.22092    0.19988    0    0    0    0    0    0    1    -360    360    1.6085    0.7442    -1.6023    -0.7385;
    13    14    0.17093    0.34802    0    0    0    0    0    0    1    -360    360    5.6234    1.6961    -5.5700    -1.5872;
];

%%-----  OPF Data  -----%%
%% generator cost data
%    1    startup    shutdown    n    x1    y1    ...    xn    yn
%    2    startup    shutdown    n    c(n-1)    ...    c0
mpc.gencost = [
    2    0    0    3    0.0430292599    20    0;
    2    0    0    3    0.25    20    0;
    2    0    0    3    0.01    40    0;
    2    0    0    3    0.01    40    0;
    2    0    0    3    0.01    40    0;
];

%% bus names
mpc.bus_name = {
    'Bus 1     HV';
    'Bus 2     HV';
    'Bus 3     HV';
    'Bus 4     HV';
    'Bus 5     HV';
    'Bus 6     LV';
    'Bus 7     ZV';
    'Bus 8     TV';
    'Bus 9     LV';
    'Bus 10    LV';
    'Bus 11    LV';
    'Bus 12    LV';
    'Bus 13    LV';
    'Bus 14    LV';
};
